! -------------------------------------------------------------------- !
! WAVEWATCH III - ww3_grid.nml - Grid pre-processing                   !
! -------------------------------------------------------------------- !


! -------------------------------------------------------------------- !
! Define the spectrum parameterization via SPECTRUM_NML namelist
! -------------------------------------------------------------------- !
&SPECTRUM_NML
  SPECTRUM%XFR           =  1.1
  SPECTRUM%FREQ1         =  0.04118
  SPECTRUM%NK            =  30
  SPECTRUM%NTH           =  36
/


! -------------------------------------------------------------------- !
! Define the run parameterization via RUN_NML namelist
! -------------------------------------------------------------------- !
&RUN_NML
  RUN%FLCX            = T
  RUN%FLCY            = T
  RUN%FLCTH           = T
  RUN%FLCK            = F
  RUN%FLSOU           = T
/


! -------------------------------------------------------------------- !
! Define the timesteps parameterization via TIMESTEPS_NML namelist
! -------------------------------------------------------------------- !
&TIMESTEPS_NML
  TIMESTEPS%DTMAX         =  600.
  TIMESTEPS%DTXY          =  60.
  TIMESTEPS%DTKTH         =  60.
  TIMESTEPS%DTMIN         =  60.
/


! -------------------------------------------------------------------- !
! Define the grid to preprocess via GRID_NML namelist
! -------------------------------------------------------------------- !
&GRID_NML
  GRID%NAME              =  'AMM15S'
  GRID%NML               =  'params.nml'
  GRID%TYPE              =  'SMCG'
  GRID%COORD             =  'SPHE'
  GRID%CLOS              =  'NONE'
  GRID%ZLIM              =  -0.10
  GRID%DMIN              =  15.0
/


! -------------------------------------------------------------------- !
! Define the rectilinear grid type via RECT_NML namelist
! - only for RECT grids -
! -------------------------------------------------------------------- !
&RECT_NML
  RECT%NX                =  729
  RECT%NY                =  672
  RECT%SX               = 0.027
  RECT%SY               = 0.027
  RECT%X0               = -10.88275
  RECT%Y0               = -7.28745
/


! -------------------------------------------------------------------- !
! Define the spherical multiple-cell grid via SMC_NML namelist
! - only for SMC grids -
! -------------------------------------------------------------------- !
&SMC_NML
  SMC%MCELS%FILENAME       = 'ww3Cels.dat'
  SMC%ISIDE%FILENAME       = 'ww3GISide.dat'
  SMC%JSIDE%FILENAME       = 'ww3GJSide.dat'
  SMC%SUBTR%FILENAME       = 'ww3Obstr.dat'
  SMC%BUNDY%FILENAME       = 'ww3Bdycln.dat'
/


! -------------------------------------------------------------------- !
! WAVEWATCH III - end of namelist                                      !
! -------------------------------------------------------------------- !
